Circuit: * D:\Documentos\Aulas Universidade\4º Ano\Sistemas de Instrumentação Eletrónica\Prática\Projeto 4\circuito.asc

Direct Newton iteration failed to find .op point.  (Use ".option noopiter" to skip.)
Starting Gmin stepping
Gmin = 10
Gmin = 1.07374
Gmin = 0.115292
Gmin = 0.0123794
Gmin = 0.00132923
Gmin = 0.000142725
Gmin = 1.5325e-005
Gmin = 1.6455e-006
Gmin = 1.76685e-007
Gmin = 1.89714e-008
Gmin = 2.03704e-009
Gmin = 2.18725e-010
Gmin = 2.34854e-011
Gmin = 2.52173e-012
Gmin = 2.70769e-013
Gmin = 0
Gmin stepping succeeded in finding the operating point.


Date: Tue Jun 09 00:23:38 2020
Total elapsed time: 0.125 seconds.

tnom = 27
temp = 27
method = modified trap
totiter = 2674
traniter = 2088
tranpoints = 1045
accept = 1045
rejected = 0
matrix size = 64
fillins = 55
solver = Normal
Matrix Compiler1: 5.93 KB object code size  1.2/0.6/[0.3]
Matrix Compiler2: 6.23 KB object code size  0.8/0.9/[0.4]

