Circuit: * C:\Users\micae\Desktop\TL431_test.asc

Direct Newton iteration for .op point succeeded.

Date: Sun Apr  5 17:49:06 2020
Total elapsed time: 0.098 seconds.

tnom = 27
temp = 27
method = modified trap
totiter = 2095
traniter = 2082
tranpoints = 1042
accept = 1042
rejected = 0
matrix size = 14
fillins = 6
solver = Normal
Matrix Compiler1: 1.18 KB object code size  0.3/0.1/[0.1]
Matrix Compiler2: 1.24 KB object code size  0.1/0.2/[0.1]

